162

C     1.4275575220E+00   0.0000000000E+00   0.0000000000E+00
C    -1.4275575220E+00   0.0000000000E+00   0.0000000000E+00
C     3.5685939370E+00   1.2363406430E+00   0.0000000000E+00
C     7.1347889300E-01   1.2363406430E+00   0.0000000000E+00
C     5.7096303520E+00   2.4726812860E+00   0.0000000000E+00
C     2.8545153080E+00   2.4726812860E+00   0.0000000000E+00
C     7.8506667670E+00   3.7090219290E+00   0.0000000000E+00
C     4.9955517230E+00   3.7090219290E+00   0.0000000000E+00
C     9.9917031820E+00   4.9453625720E+00   0.0000000000E+00
C     7.1365881380E+00   4.9453625720E+00   0.0000000000E+00
C     1.2132739597E+01   6.1817032150E+00   0.0000000000E+00
C     9.2776245530E+00   6.1817032150E+00   0.0000000000E+00
C     1.4273776012E+01   7.4180438580E+00   0.0000000000E+00
C     1.1418660968E+01   7.4180438580E+00   0.0000000000E+00
C     1.6414812427E+01   8.6543845010E+00   0.0000000000E+00
C     1.3559697383E+01   8.6543845010E+00   0.0000000000E+00
C     1.8555848842E+01   9.8907251440E+00   0.0000000000E+00
C     1.5700733798E+01   9.8907251440E+00   0.0000000000E+00
C     3.5685939370E+00  -1.2363406430E+00   0.0000000000E+00
C     7.1347889300E-01  -1.2363406430E+00   0.0000000000E+00
C     5.7096303520E+00   0.0000000000E+00   0.0000000000E+00
C     2.8545153080E+00   0.0000000000E+00   0.0000000000E+00
C     7.8506667670E+00   1.2363406430E+00   0.0000000000E+00
C     4.9955517230E+00   1.2363406430E+00   0.0000000000E+00
C     9.9917031820E+00   2.4726812860E+00   0.0000000000E+00
C     7.1365881380E+00   2.4726812860E+00   0.0000000000E+00
C     1.2132739597E+01   3.7090219290E+00   0.0000000000E+00
C     9.2776245530E+00   3.7090219290E+00   0.0000000000E+00
C     1.4273776012E+01   4.9453625720E+00   0.0000000000E+00
C     1.1418660968E+01   4.9453625720E+00   0.0000000000E+00
C     1.6414812427E+01   6.1817032150E+00   0.0000000000E+00
C     1.3559697383E+01   6.1817032150E+00   0.0000000000E+00
C     1.8555848842E+01   7.4180438580E+00   0.0000000000E+00
C     1.5700733798E+01   7.4180438580E+00   0.0000000000E+00
C     2.0696885257E+01   8.6543845010E+00   0.0000000000E+00
C     1.7841770213E+01   8.6543845010E+00   0.0000000000E+00
C     5.7096303520E+00  -2.4726812860E+00   0.0000000000E+00
C     2.8545153080E+00  -2.4726812860E+00   0.0000000000E+00
C     7.8506667670E+00  -1.2363406430E+00   0.0000000000E+00
C     4.9955517230E+00  -1.2363406430E+00   0.0000000000E+00
C     9.9917031820E+00   0.0000000000E+00   0.0000000000E+00
C     7.1365881380E+00   0.0000000000E+00   0.0000000000E+00
C     1.2132739597E+01   1.2363406430E+00   0.0000000000E+00
C     9.2776245530E+00   1.2363406430E+00   0.0000000000E+00
C     1.4273776012E+01   2.4726812860E+00   0.0000000000E+00
C     1.1418660968E+01   2.4726812860E+00   0.0000000000E+00
C     1.6414812427E+01   3.7090219290E+00   0.0000000000E+00
C     1.3559697383E+01   3.7090219290E+00   0.0000000000E+00
C     1.8555848842E+01   4.9453625720E+00   0.0000000000E+00
C     1.5700733798E+01   4.9453625720E+00   0.0000000000E+00
C     2.0696885257E+01   6.1817032150E+00   0.0000000000E+00
C     1.7841770213E+01   6.1817032150E+00   0.0000000000E+00
C     2.2837921672E+01   7.4180438580E+00   0.0000000000E+00
C     1.9982806628E+01   7.4180438580E+00   0.0000000000E+00
C     7.8506667670E+00  -3.7090219290E+00   0.0000000000E+00
C     4.9955517230E+00  -3.7090219290E+00   0.0000000000E+00
C     9.9917031820E+00  -2.4726812860E+00   0.0000000000E+00
C     7.1365881380E+00  -2.4726812860E+00   0.0000000000E+00
C     1.2132739597E+01  -1.2363406430E+00   0.0000000000E+00
C     9.2776245530E+00  -1.2363406430E+00   0.0000000000E+00
C     1.4273776012E+01   0.0000000000E+00   0.0000000000E+00
C     1.1418660968E+01   0.0000000000E+00   0.0000000000E+00
C     1.6414812427E+01   1.2363406430E+00   0.0000000000E+00
C     1.3559697383E+01   1.2363406430E+00   0.0000000000E+00
C     1.8555848842E+01   2.4726812860E+00   0.0000000000E+00
C     1.5700733798E+01   2.4726812860E+00   0.0000000000E+00
C     2.0696885257E+01   3.7090219290E+00   0.0000000000E+00
C     1.7841770213E+01   3.7090219290E+00   0.0000000000E+00
C     2.2837921672E+01   4.9453625720E+00   0.0000000000E+00
C     1.9982806628E+01   4.9453625720E+00   0.0000000000E+00
C     2.4978958087E+01   6.1817032150E+00   0.0000000000E+00
C     2.2123843043E+01   6.1817032150E+00   0.0000000000E+00
C     9.9917031820E+00  -4.9453625720E+00   0.0000000000E+00
C     7.1365881380E+00  -4.9453625720E+00   0.0000000000E+00
C     1.2132739597E+01  -3.7090219290E+00   0.0000000000E+00
C     9.2776245530E+00  -3.7090219290E+00   0.0000000000E+00
C     1.4273776012E+01  -2.4726812860E+00   0.0000000000E+00
C     1.1418660968E+01  -2.4726812860E+00   0.0000000000E+00
C     1.6414812427E+01  -1.2363406430E+00   0.0000000000E+00
C     1.3559697383E+01  -1.2363406430E+00   0.0000000000E+00
C     1.8555848842E+01   0.0000000000E+00   0.0000000000E+00
C     1.5700733798E+01   0.0000000000E+00   0.0000000000E+00
C     2.0696885257E+01   1.2363406430E+00   0.0000000000E+00
C     1.7841770213E+01   1.2363406430E+00   0.0000000000E+00
C     2.2837921672E+01   2.4726812860E+00   0.0000000000E+00
C     1.9982806628E+01   2.4726812860E+00   0.0000000000E+00
C     2.4978958087E+01   3.7090219290E+00   0.0000000000E+00
C     2.2123843043E+01   3.7090219290E+00   0.0000000000E+00
C     2.7119994502E+01   4.9453625720E+00   0.0000000000E+00
C     2.4264879458E+01   4.9453625720E+00   0.0000000000E+00
C     1.2132739597E+01  -6.1817032150E+00   0.0000000000E+00
C     9.2776245530E+00  -6.1817032150E+00   0.0000000000E+00
C     1.4273776012E+01  -4.9453625720E+00   0.0000000000E+00
C     1.1418660968E+01  -4.9453625720E+00   0.0000000000E+00
C     1.6414812427E+01  -3.7090219290E+00   0.0000000000E+00
C     1.3559697383E+01  -3.7090219290E+00   0.0000000000E+00
C     1.8555848842E+01  -2.4726812860E+00   0.0000000000E+00
C     1.5700733798E+01  -2.4726812860E+00   0.0000000000E+00
C     2.0696885257E+01  -1.2363406430E+00   0.0000000000E+00
C     1.7841770213E+01  -1.2363406430E+00   0.0000000000E+00
C     2.2837921672E+01   0.0000000000E+00   0.0000000000E+00
C     1.9982806628E+01   0.0000000000E+00   0.0000000000E+00
C     2.4978958087E+01   1.2363406430E+00   0.0000000000E+00
C     2.2123843043E+01   1.2363406430E+00   0.0000000000E+00
C     2.7119994502E+01   2.4726812860E+00   0.0000000000E+00
C     2.4264879458E+01   2.4726812860E+00   0.0000000000E+00
C     2.9261030917E+01   3.7090219290E+00   0.0000000000E+00
C     2.6405915873E+01   3.7090219290E+00   0.0000000000E+00
C     1.4273776012E+01  -7.4180438580E+00   0.0000000000E+00
C     1.1418660968E+01  -7.4180438580E+00   0.0000000000E+00
C     1.6414812427E+01  -6.1817032150E+00   0.0000000000E+00
C     1.3559697383E+01  -6.1817032150E+00   0.0000000000E+00
C     1.8555848842E+01  -4.9453625720E+00   0.0000000000E+00
C     1.5700733798E+01  -4.9453625720E+00   0.0000000000E+00
C     2.0696885257E+01  -3.7090219290E+00   0.0000000000E+00
C     1.7841770213E+01  -3.7090219290E+00   0.0000000000E+00
C     2.2837921672E+01  -2.4726812860E+00   0.0000000000E+00
C     1.9982806628E+01  -2.4726812860E+00   0.0000000000E+00
C     2.4978958087E+01  -1.2363406430E+00   0.0000000000E+00
C     2.2123843043E+01  -1.2363406430E+00   0.0000000000E+00
C     2.7119994502E+01   0.0000000000E+00   0.0000000000E+00
C     2.4264879458E+01   0.0000000000E+00   0.0000000000E+00
C     2.9261030917E+01   1.2363406430E+00   0.0000000000E+00
C     2.6405915873E+01   1.2363406430E+00   0.0000000000E+00
C     3.1402067332E+01   2.4726812860E+00   0.0000000000E+00
C     2.8546952288E+01   2.4726812860E+00   0.0000000000E+00
C     1.6414812427E+01  -8.6543845010E+00   0.0000000000E+00
C     1.3559697383E+01  -8.6543845010E+00   0.0000000000E+00
C     1.8555848842E+01  -7.4180438580E+00   0.0000000000E+00
C     1.5700733798E+01  -7.4180438580E+00   0.0000000000E+00
C     2.0696885257E+01  -6.1817032150E+00   0.0000000000E+00
C     1.7841770213E+01  -6.1817032150E+00   0.0000000000E+00
C     2.2837921672E+01  -4.9453625720E+00   0.0000000000E+00
C     1.9982806628E+01  -4.9453625720E+00   0.0000000000E+00
C     2.4978958087E+01  -3.7090219290E+00   0.0000000000E+00
C     2.2123843043E+01  -3.7090219290E+00   0.0000000000E+00
C     2.7119994502E+01  -2.4726812860E+00   0.0000000000E+00
C     2.4264879458E+01  -2.4726812860E+00   0.0000000000E+00
C     2.9261030917E+01  -1.2363406430E+00   0.0000000000E+00
C     2.6405915873E+01  -1.2363406430E+00   0.0000000000E+00
C     3.1402067332E+01   0.0000000000E+00   0.0000000000E+00
C     2.8546952288E+01   0.0000000000E+00   0.0000000000E+00
C     3.3543103747E+01   1.2363406430E+00   0.0000000000E+00
C     3.0687988703E+01   1.2363406430E+00   0.0000000000E+00
C     1.8555848842E+01  -9.8907251440E+00   0.0000000000E+00
C     1.5700733798E+01  -9.8907251440E+00   0.0000000000E+00
C     2.0696885257E+01  -8.6543845010E+00   0.0000000000E+00
C     1.7841770213E+01  -8.6543845010E+00   0.0000000000E+00
C     2.2837921672E+01  -7.4180438580E+00   0.0000000000E+00
C     1.9982806628E+01  -7.4180438580E+00   0.0000000000E+00
C     2.4978958087E+01  -6.1817032150E+00   0.0000000000E+00
C     2.2123843043E+01  -6.1817032150E+00   0.0000000000E+00
C     2.7119994502E+01  -4.9453625720E+00   0.0000000000E+00
C     2.4264879458E+01  -4.9453625720E+00   0.0000000000E+00
C     2.9261030917E+01  -3.7090219290E+00   0.0000000000E+00
C     2.6405915873E+01  -3.7090219290E+00   0.0000000000E+00
C     3.1402067332E+01  -2.4726812860E+00   0.0000000000E+00
C     2.8546952288E+01  -2.4726812860E+00   0.0000000000E+00
C     3.3543103747E+01  -1.2363406430E+00   0.0000000000E+00
C     3.0687988703E+01  -1.2363406430E+00   0.0000000000E+00
C     3.5684140162E+01   0.0000000000E+00   0.0000000000E+00
C     3.2829025118E+01   0.0000000000E+00   0.0000000000E+00
