18

C     1.4000000000E+00   0.0000000000E+00   0.0000000000E+00
C    -1.4000000000E+00   0.0000000000E+00   0.0000000000E+00
C     3.5300000000E+00   1.2297560730E+00   0.0000000000E+00
C     7.3000000000E-01   1.2297560730E+00   0.0000000000E+00
C     5.6600000000E+00   2.4595121460E+00   0.0000000000E+00
C     2.8600000000E+00   2.4595121460E+00   0.0000000000E+00
C     3.5300000000E+00  -1.2297560730E+00   0.0000000000E+00
C     7.3000000000E-01  -1.2297560730E+00   0.0000000000E+00
C     5.6600000000E+00   0.0000000000E+00   0.0000000000E+00
C     2.8600000000E+00   0.0000000000E+00   0.0000000000E+00
C     7.7900000000E+00   1.2297560730E+00   0.0000000000E+00
C     4.9900000000E+00   1.2297560730E+00   0.0000000000E+00
C     5.6600000000E+00  -2.4595121460E+00   0.0000000000E+00
C     2.8600000000E+00  -2.4595121460E+00   0.0000000000E+00
C     7.7900000000E+00  -1.2297560730E+00   0.0000000000E+00
C     4.9900000000E+00  -1.2297560730E+00   0.0000000000E+00
C     9.9200000000E+00   0.0000000000E+00   0.0000000000E+00
C     7.1200000000E+00   0.0000000000E+00   0.0000000000E+00
