72

C     1.4000000000E+00   0.0000000000E+00   0.0000000000E+00
C    -1.4000000000E+00   0.0000000000E+00   0.0000000000E+00
C     3.5300000000E+00   1.2297560730E+00   0.0000000000E+00
C     7.3000000000E-01   1.2297560730E+00   0.0000000000E+00
C     5.6600000000E+00   2.4595121460E+00   0.0000000000E+00
C     2.8600000000E+00   2.4595121460E+00   0.0000000000E+00
C     7.7900000000E+00   3.6892682190E+00   0.0000000000E+00
C     4.9900000000E+00   3.6892682190E+00   0.0000000000E+00
C     9.9200000000E+00   4.9190242920E+00   0.0000000000E+00
C     7.1200000000E+00   4.9190242920E+00   0.0000000000E+00
C     1.2050000000E+01   6.1487803650E+00   0.0000000000E+00
C     9.2500000000E+00   6.1487803650E+00   0.0000000000E+00
C     3.5300000000E+00  -1.2297560730E+00   0.0000000000E+00
C     7.3000000000E-01  -1.2297560730E+00   0.0000000000E+00
C     5.6600000000E+00   0.0000000000E+00   0.0000000000E+00
C     2.8600000000E+00   0.0000000000E+00   0.0000000000E+00
C     7.7900000000E+00   1.2297560730E+00   0.0000000000E+00
C     4.9900000000E+00   1.2297560730E+00   0.0000000000E+00
C     9.9200000000E+00   2.4595121460E+00   0.0000000000E+00
C     7.1200000000E+00   2.4595121460E+00   0.0000000000E+00
C     1.2050000000E+01   3.6892682190E+00   0.0000000000E+00
C     9.2500000000E+00   3.6892682190E+00   0.0000000000E+00
C     1.4180000000E+01   4.9190242920E+00   0.0000000000E+00
C     1.1380000000E+01   4.9190242920E+00   0.0000000000E+00
C     5.6600000000E+00  -2.4595121460E+00   0.0000000000E+00
C     2.8600000000E+00  -2.4595121460E+00   0.0000000000E+00
C     7.7900000000E+00  -1.2297560730E+00   0.0000000000E+00
C     4.9900000000E+00  -1.2297560730E+00   0.0000000000E+00
C     9.9200000000E+00   0.0000000000E+00   0.0000000000E+00
C     7.1200000000E+00   0.0000000000E+00   0.0000000000E+00
C     1.2050000000E+01   1.2297560730E+00   0.0000000000E+00
C     9.2500000000E+00   1.2297560730E+00   0.0000000000E+00
C     1.4180000000E+01   2.4595121460E+00   0.0000000000E+00
C     1.1380000000E+01   2.4595121460E+00   0.0000000000E+00
C     1.6310000000E+01   3.6892682190E+00   0.0000000000E+00
C     1.3510000000E+01   3.6892682190E+00   0.0000000000E+00
C     7.7900000000E+00  -3.6892682190E+00   0.0000000000E+00
C     4.9900000000E+00  -3.6892682190E+00   0.0000000000E+00
C     9.9200000000E+00  -2.4595121460E+00   0.0000000000E+00
C     7.1200000000E+00  -2.4595121460E+00   0.0000000000E+00
C     1.2050000000E+01  -1.2297560730E+00   0.0000000000E+00
C     9.2500000000E+00  -1.2297560730E+00   0.0000000000E+00
C     1.4180000000E+01   0.0000000000E+00   0.0000000000E+00
C     1.1380000000E+01   0.0000000000E+00   0.0000000000E+00
C     1.6310000000E+01   1.2297560730E+00   0.0000000000E+00
C     1.3510000000E+01   1.2297560730E+00   0.0000000000E+00
C     1.8440000000E+01   2.4595121460E+00   0.0000000000E+00
C     1.5640000000E+01   2.4595121460E+00   0.0000000000E+00
C     9.9200000000E+00  -4.9190242920E+00   0.0000000000E+00
C     7.1200000000E+00  -4.9190242920E+00   0.0000000000E+00
C     1.2050000000E+01  -3.6892682190E+00   0.0000000000E+00
C     9.2500000000E+00  -3.6892682190E+00   0.0000000000E+00
C     1.4180000000E+01  -2.4595121460E+00   0.0000000000E+00
C     1.1380000000E+01  -2.4595121460E+00   0.0000000000E+00
C     1.6310000000E+01  -1.2297560730E+00   0.0000000000E+00
C     1.3510000000E+01  -1.2297560730E+00   0.0000000000E+00
C     1.8440000000E+01   0.0000000000E+00   0.0000000000E+00
C     1.5640000000E+01   0.0000000000E+00   0.0000000000E+00
C     2.0570000000E+01   1.2297560730E+00   0.0000000000E+00
C     1.7770000000E+01   1.2297560730E+00   0.0000000000E+00
C     1.2050000000E+01  -6.1487803650E+00   0.0000000000E+00
C     9.2500000000E+00  -6.1487803650E+00   0.0000000000E+00
C     1.4180000000E+01  -4.9190242920E+00   0.0000000000E+00
C     1.1380000000E+01  -4.9190242920E+00   0.0000000000E+00
C     1.6310000000E+01  -3.6892682190E+00   0.0000000000E+00
C     1.3510000000E+01  -3.6892682190E+00   0.0000000000E+00
C     1.8440000000E+01  -2.4595121460E+00   0.0000000000E+00
C     1.5640000000E+01  -2.4595121460E+00   0.0000000000E+00
C     2.0570000000E+01  -1.2297560730E+00   0.0000000000E+00
C     1.7770000000E+01  -1.2297560730E+00   0.0000000000E+00
C     2.2700000000E+01   0.0000000000E+00   0.0000000000E+00
C     1.9900000000E+01   0.0000000000E+00   0.0000000000E+00
